<routes xmlns:xsi="http://www.w3.org/2001/XMLSchema-instance" xsi:noNamespaceSchemaLocation="http://sumo.dlr.de/xsd/routes_file.xsd">
  <vType id="car_1" speedFactor="1.0" accel="2.6" decel="4.5" sigma="0.0" speedDev="0.0" length="4.5" maxSpeed="13.9" guiShape="passenger" />
  <vType id="car_69" speedFactor="1.0" accel="2.6" decel="4.5" sigma="0.0" speedDev="0.0" length="4.5" maxSpeed="13.9" guiShape="passenger" />
  <vType id="car_96" speedFactor="1.0" accel="2.6" decel="4.5" sigma="0.0" speedDev="0.0" length="4.5" maxSpeed="13.9" guiShape="passenger" />
  <vType id="car_60" speedFactor="1.0" accel="2.6" decel="4.5" sigma="0.0" speedDev="0.0" length="4.5" maxSpeed="13.9" guiShape="passenger" />
  <vType id="car_23" speedFactor="1.0" accel="2.6" decel="4.5" sigma="0.0" speedDev="0.0" length="4.5" maxSpeed="13.9" guiShape="passenger" />
  <vType id="car_22" speedFactor="1.0" accel="2.6" decel="4.5" sigma="0.0" speedDev="0.0" length="4.5" maxSpeed="13.9" guiShape="passenger" />
  <vType id="car_65" speedFactor="1.0" accel="2.6" decel="4.5" sigma="0.0" speedDev="0.0" length="4.5" maxSpeed="13.9" guiShape="passenger" />
  <vType id="car_11" speedFactor="1.0" accel="2.6" decel="4.5" sigma="0.0" speedDev="0.0" length="4.5" maxSpeed="13.9" guiShape="passenger" />
  <vType id="car_10" speedFactor="1.0" accel="2.6" decel="4.5" sigma="0.0" speedDev="0.0" length="4.5" maxSpeed="13.9" guiShape="passenger" />
  <vType id="car_83" speedFactor="1.0" accel="2.6" decel="4.5" sigma="0.0" speedDev="0.0" length="4.5" maxSpeed="13.9" guiShape="passenger" />
  <vType id="car_2" speedFactor="1.0" accel="2.6" decel="4.5" sigma="0.0" speedDev="0.0" length="4.5" maxSpeed="13.9" guiShape="passenger" />
  <vType id="car_62" speedFactor="1.0" accel="2.6" decel="4.5" sigma="0.0" speedDev="0.0" length="4.5" maxSpeed="13.9" guiShape="passenger" />
  <vType id="car_3" speedFactor="1.0" accel="2.6" decel="4.5" sigma="0.0" speedDev="0.0" length="4.5" maxSpeed="13.9" guiShape="passenger" />
  <vType id="car_97" speedFactor="1.0" accel="2.6" decel="4.5" sigma="0.0" speedDev="0.0" length="4.5" maxSpeed="13.9" guiShape="passenger" />
  <vType id="car_24" speedFactor="1.0" accel="2.6" decel="4.5" sigma="0.0" speedDev="0.0" length="4.5" maxSpeed="13.9" guiShape="passenger" />
  <vType id="car_88" speedFactor="1.0" accel="2.6" decel="4.5" sigma="0.0" speedDev="0.0" length="4.5" maxSpeed="13.9" guiShape="passenger" />
  <vType id="car_92" speedFactor="1.0" accel="2.6" decel="4.5" sigma="0.0" speedDev="0.0" length="4.5" maxSpeed="13.9" guiShape="passenger" />
  <vType id="car_84" speedFactor="1.0" accel="2.6" decel="4.5" sigma="0.0" speedDev="0.0" length="4.5" maxSpeed="13.9" guiShape="passenger" />
  <vType id="car_99" speedFactor="1.0" accel="2.6" decel="4.5" sigma="0.0" speedDev="0.0" length="4.5" maxSpeed="13.9" guiShape="passenger" />
  <vType id="car_61" speedFactor="1.0" accel="2.6" decel="4.5" sigma="0.0" speedDev="0.0" length="4.5" maxSpeed="13.9" guiShape="passenger" />
  <vType id="car_66" speedFactor="1.0" accel="2.6" decel="4.5" sigma="0.0" speedDev="0.0" length="4.5" maxSpeed="13.9" guiShape="passenger" />
  <vType id="car_63" speedFactor="1.0" accel="2.6" decel="4.5" sigma="0.0" speedDev="0.0" length="4.5" maxSpeed="13.9" guiShape="passenger" />
  <vType id="car_109" speedFactor="1.0" accel="2.6" decel="4.5" sigma="0.0" speedDev="0.0" length="4.5" maxSpeed="13.9" guiShape="passenger" />
  <vType id="car_67" speedFactor="1.0" accel="2.6" decel="4.5" sigma="0.0" speedDev="0.0" length="4.5" maxSpeed="13.9" guiShape="passenger" />
  <vType id="car_85" speedFactor="1.0" accel="2.6" decel="4.5" sigma="0.0" speedDev="0.0" length="4.5" maxSpeed="13.9" guiShape="passenger" />
  <vType id="car_25" speedFactor="1.0" accel="2.6" decel="4.5" sigma="0.0" speedDev="0.0" length="4.5" maxSpeed="13.9" guiShape="passenger" />
  <vType id="car_110" speedFactor="1.0" accel="2.6" decel="4.5" sigma="0.0" speedDev="0.0" length="4.5" maxSpeed="13.9" guiShape="passenger" />
  <vType id="car_4" speedFactor="1.0" accel="2.6" decel="4.5" sigma="0.0" speedDev="0.0" length="4.5" maxSpeed="13.9" guiShape="passenger" />
  <vType id="car_12" speedFactor="1.0" accel="2.6" decel="4.5" sigma="0.0" speedDev="0.0" length="4.5" maxSpeed="13.9" guiShape="passenger" />
  <vType id="car_89" speedFactor="1.0" accel="2.6" decel="4.5" sigma="0.0" speedDev="0.0" length="4.5" maxSpeed="13.9" guiShape="passenger" />
  <vType id="car_93" speedFactor="1.0" accel="2.6" decel="4.5" sigma="0.0" speedDev="0.0" length="4.5" maxSpeed="13.9" guiShape="passenger" />
  <vType id="car_98" speedFactor="1.0" accel="2.6" decel="4.5" sigma="0.0" speedDev="0.0" length="4.5" maxSpeed="13.9" guiShape="passenger" />
  <vType id="car_90" speedFactor="1.0" accel="2.6" decel="4.5" sigma="0.0" speedDev="0.0" length="4.5" maxSpeed="13.9" guiShape="passenger" />
  <vType id="car_86" speedFactor="1.0" accel="2.6" decel="4.5" sigma="0.0" speedDev="0.0" length="4.5" maxSpeed="13.9" guiShape="passenger" />
  <vType id="car_111" speedFactor="1.0" accel="2.6" decel="4.5" sigma="0.0" speedDev="0.0" length="4.5" maxSpeed="13.9" guiShape="passenger" />
  <vType id="car_68" speedFactor="1.0" accel="2.6" decel="4.5" sigma="0.0" speedDev="0.0" length="4.5" maxSpeed="13.9" guiShape="passenger" />
  <vType id="car_5" speedFactor="1.0" accel="2.6" decel="4.5" sigma="0.0" speedDev="0.0" length="4.5" maxSpeed="13.9" guiShape="passenger" />
  <vType id="car_100" speedFactor="1.0" accel="2.6" decel="4.5" sigma="0.0" speedDev="0.0" length="4.5" maxSpeed="13.9" guiShape="passenger" />
  <vType id="car_64" speedFactor="1.0" accel="2.6" decel="4.5" sigma="0.0" speedDev="0.0" length="4.5" maxSpeed="13.9" guiShape="passenger" />
  <vType id="car_94" speedFactor="1.0" accel="2.6" decel="4.5" sigma="0.0" speedDev="0.0" length="4.5" maxSpeed="13.9" guiShape="passenger" />
  <vType id="car_26" speedFactor="1.0" accel="2.6" decel="4.5" sigma="0.0" speedDev="0.0" length="4.5" maxSpeed="13.9" guiShape="passenger" />
  <vType id="car_70" speedFactor="1.0" accel="2.6" decel="4.5" sigma="0.0" speedDev="0.0" length="4.5" maxSpeed="13.9" guiShape="passenger" />
  <vType id="car_27" speedFactor="1.0" accel="2.6" decel="4.5" sigma="0.0" speedDev="0.0" length="4.5" maxSpeed="13.9" guiShape="passenger" />
  <vType id="car_91" speedFactor="1.0" accel="2.6" decel="4.5" sigma="0.0" speedDev="0.0" length="4.5" maxSpeed="13.9" guiShape="passenger" />
  <vType id="car_95" speedFactor="1.0" accel="2.6" decel="4.5" sigma="0.0" speedDev="0.0" length="4.5" maxSpeed="13.9" guiShape="passenger" />
  <vType id="car_101" speedFactor="1.0" accel="2.6" decel="4.5" sigma="0.0" speedDev="0.0" length="4.5" maxSpeed="13.9" guiShape="passenger" />
  <vType id="car_7" speedFactor="1.0" accel="2.6" decel="4.5" sigma="0.0" speedDev="0.0" length="4.5" maxSpeed="13.9" guiShape="passenger" />
  <vType id="car_6" speedFactor="1.0" accel="2.6" decel="4.5" sigma="0.0" speedDev="0.0" length="4.5" maxSpeed="13.9" guiShape="passenger" />
  <vType id="car_87" speedFactor="1.0" accel="2.6" decel="4.5" sigma="0.0" speedDev="0.0" length="4.5" maxSpeed="13.9" guiShape="passenger" />
  <vType id="car_112" speedFactor="1.0" accel="2.6" decel="4.5" sigma="0.0" speedDev="0.0" length="4.5" maxSpeed="13.9" guiShape="passenger" />
  <vType id="car_233" speedFactor="1.0" accel="2.6" decel="4.5" sigma="0.0" speedDev="0.0" length="4.5" maxSpeed="13.9" guiShape="passenger" />
  <vType id="car_234" speedFactor="1.0" accel="2.6" decel="4.5" sigma="0.0" speedDev="0.0" length="4.5" maxSpeed="13.9" guiShape="passenger" />
  <vType id="car_235" speedFactor="1.0" accel="2.6" decel="4.5" sigma="0.0" speedDev="0.0" length="4.5" maxSpeed="13.9" guiShape="passenger" />
  <vType id="car_236" speedFactor="1.0" accel="2.6" decel="4.5" sigma="0.0" speedDev="0.0" length="4.5" maxSpeed="13.9" guiShape="passenger" />
  <vType id="car_237" speedFactor="1.0" accel="2.6" decel="4.5" sigma="0.0" speedDev="0.0" length="4.5" maxSpeed="13.9" guiShape="passenger" />
  <vType id="car_8" speedFactor="1.0" accel="2.6" decel="4.5" sigma="0.0" speedDev="0.0" length="4.5" maxSpeed="13.9" guiShape="passenger" />
  <vType id="car_28" speedFactor="1.0" accel="2.6" decel="4.5" sigma="0.0" speedDev="0.0" length="4.5" maxSpeed="13.9" guiShape="passenger" />
  <vType id="car_13" speedFactor="1.0" accel="2.6" decel="4.5" sigma="0.0" speedDev="0.0" length="4.5" maxSpeed="13.9" guiShape="passenger" />
  <vType id="car_41" speedFactor="1.0" accel="2.6" decel="4.5" sigma="0.0" speedDev="0.0" length="4.5" maxSpeed="13.9" guiShape="passenger" />
  <vType id="car_38" speedFactor="1.0" accel="2.6" decel="4.5" sigma="0.0" speedDev="0.0" length="4.5" maxSpeed="13.9" guiShape="passenger" />
  <vType id="car_29" speedFactor="1.0" accel="2.6" decel="4.5" sigma="0.0" speedDev="0.0" length="4.5" maxSpeed="13.9" guiShape="passenger" />
  <vType id="car_14" speedFactor="1.0" accel="2.6" decel="4.5" sigma="0.0" speedDev="0.0" length="4.5" maxSpeed="13.9" guiShape="passenger" />
  <vType id="car_102" speedFactor="1.0" accel="2.6" decel="4.5" sigma="0.0" speedDev="0.0" length="4.5" maxSpeed="13.9" guiShape="passenger" />
  <vType id="car_71" speedFactor="1.0" accel="2.6" decel="4.5" sigma="0.0" speedDev="0.0" length="4.5" maxSpeed="13.9" guiShape="passenger" />
  <vType id="car_42" speedFactor="1.0" accel="2.6" decel="4.5" sigma="0.0" speedDev="0.0" length="4.5" maxSpeed="13.9" guiShape="passenger" />
  <vType id="car_30" speedFactor="1.0" accel="2.6" decel="4.5" sigma="0.0" speedDev="0.0" length="4.5" maxSpeed="13.9" guiShape="passenger" />
  <vType id="car_103" speedFactor="1.0" accel="2.6" decel="4.5" sigma="0.0" speedDev="0.0" length="4.5" maxSpeed="13.9" guiShape="passenger" />
  <vType id="car_72" speedFactor="1.0" accel="2.6" decel="4.5" sigma="0.0" speedDev="0.0" length="4.5" maxSpeed="13.9" guiShape="passenger" />
  <vType id="car_51" speedFactor="1.0" accel="2.6" decel="4.5" sigma="0.0" speedDev="0.0" length="4.5" maxSpeed="13.9" guiShape="passenger" />
  <vType id="car_16" speedFactor="1.0" accel="2.6" decel="4.5" sigma="0.0" speedDev="0.0" length="4.5" maxSpeed="13.9" guiShape="passenger" />
  <vType id="car_15" speedFactor="1.0" accel="2.6" decel="4.5" sigma="0.0" speedDev="0.0" length="4.5" maxSpeed="13.9" guiShape="passenger" />
  <vType id="car_43" speedFactor="1.0" accel="2.6" decel="4.5" sigma="0.0" speedDev="0.0" length="4.5" maxSpeed="13.9" guiShape="passenger" />
  <vType id="car_17" speedFactor="1.0" accel="2.6" decel="4.5" sigma="0.0" speedDev="0.0" length="4.5" maxSpeed="13.9" guiShape="passenger" />
  <vType id="car_73" speedFactor="1.0" accel="2.6" decel="4.5" sigma="0.0" speedDev="0.0" length="4.5" maxSpeed="13.9" guiShape="passenger" />
  <vType id="car_9" speedFactor="1.0" accel="2.6" decel="4.5" sigma="0.0" speedDev="0.0" length="4.5" maxSpeed="13.9" guiShape="passenger" />
  <vType id="car_52" speedFactor="1.0" accel="2.6" decel="4.5" sigma="0.0" speedDev="0.0" length="4.5" maxSpeed="13.9" guiShape="passenger" />
  <vType id="car_31" speedFactor="1.0" accel="2.6" decel="4.5" sigma="0.0" speedDev="0.0" length="4.5" maxSpeed="13.9" guiShape="passenger" />
  <vType id="car_53" speedFactor="1.0" accel="2.6" decel="4.5" sigma="0.0" speedDev="0.0" length="4.5" maxSpeed="13.9" guiShape="passenger" />
  <vType id="car_44" speedFactor="1.0" accel="2.6" decel="4.5" sigma="0.0" speedDev="0.0" length="4.5" maxSpeed="13.9" guiShape="passenger" />
  <vType id="car_18" speedFactor="1.0" accel="2.6" decel="4.5" sigma="0.0" speedDev="0.0" length="4.5" maxSpeed="13.9" guiShape="passenger" />
  <vType id="car_19" speedFactor="1.0" accel="2.6" decel="4.5" sigma="0.0" speedDev="0.0" length="4.5" maxSpeed="13.9" guiShape="passenger" />
  <vType id="car_32" speedFactor="1.0" accel="2.6" decel="4.5" sigma="0.0" speedDev="0.0" length="4.5" maxSpeed="13.9" guiShape="passenger" />
  <vType id="car_54" speedFactor="1.0" accel="2.6" decel="4.5" sigma="0.0" speedDev="0.0" length="4.5" maxSpeed="13.9" guiShape="passenger" />
  <vType id="car_45" speedFactor="1.0" accel="2.6" decel="4.5" sigma="0.0" speedDev="0.0" length="4.5" maxSpeed="13.9" guiShape="passenger" />
  <vType id="car_207" speedFactor="1.0" accel="2.6" decel="4.5" sigma="0.0" speedDev="0.0" length="4.5" maxSpeed="13.9" guiShape="passenger" />
  <vType id="car_74" speedFactor="1.0" accel="2.6" decel="4.5" sigma="0.0" speedDev="0.0" length="4.5" maxSpeed="13.9" guiShape="passenger" />
  <vType id="car_55" speedFactor="1.0" accel="2.6" decel="4.5" sigma="0.0" speedDev="0.0" length="4.5" maxSpeed="13.9" guiShape="passenger" />
  <vType id="car_33" speedFactor="1.0" accel="2.6" decel="4.5" sigma="0.0" speedDev="0.0" length="4.5" maxSpeed="13.9" guiShape="passenger" />
  <vType id="car_34" speedFactor="1.0" accel="2.6" decel="4.5" sigma="0.0" speedDev="0.0" length="4.5" maxSpeed="13.9" guiShape="passenger" />
  <vType id="car_56" speedFactor="1.0" accel="2.6" decel="4.5" sigma="0.0" speedDev="0.0" length="4.5" maxSpeed="13.9" guiShape="passenger" />
  <vType id="car_39" speedFactor="1.0" accel="2.6" decel="4.5" sigma="0.0" speedDev="0.0" length="4.5" maxSpeed="13.9" guiShape="passenger" />
  <vType id="car_75" speedFactor="1.0" accel="2.6" decel="4.5" sigma="0.0" speedDev="0.0" length="4.5" maxSpeed="13.9" guiShape="passenger" />
  <vType id="car_76" speedFactor="1.0" accel="2.6" decel="4.5" sigma="0.0" speedDev="0.0" length="4.5" maxSpeed="13.9" guiShape="passenger" />
  <vType id="car_46" speedFactor="1.0" accel="2.6" decel="4.5" sigma="0.0" speedDev="0.0" length="4.5" maxSpeed="13.9" guiShape="passenger" />
  <vType id="car_35" speedFactor="1.0" accel="2.6" decel="4.5" sigma="0.0" speedDev="0.0" length="4.5" maxSpeed="13.9" guiShape="passenger" />
  <vType id="car_20" speedFactor="1.0" accel="2.6" decel="4.5" sigma="0.0" speedDev="0.0" length="4.5" maxSpeed="13.9" guiShape="passenger" />
  <vType id="car_57" speedFactor="1.0" accel="2.6" decel="4.5" sigma="0.0" speedDev="0.0" length="4.5" maxSpeed="13.9" guiShape="passenger" />
  <vType id="car_21" speedFactor="1.0" accel="2.6" decel="4.5" sigma="0.0" speedDev="0.0" length="4.5" maxSpeed="13.9" guiShape="passenger" />
  <vType id="car_77" speedFactor="1.0" accel="2.6" decel="4.5" sigma="0.0" speedDev="0.0" length="4.5" maxSpeed="13.9" guiShape="passenger" />
  <vType id="car_40" speedFactor="1.0" accel="2.6" decel="4.5" sigma="0.0" speedDev="0.0" length="4.5" maxSpeed="13.9" guiShape="passenger" />
  <vType id="car_47" speedFactor="1.0" accel="2.6" decel="4.5" sigma="0.0" speedDev="0.0" length="4.5" maxSpeed="13.9" guiShape="passenger" />
  <vType id="car_78" speedFactor="1.0" accel="2.6" decel="4.5" sigma="0.0" speedDev="0.0" length="4.5" maxSpeed="13.9" guiShape="passenger" />
  <vType id="car_58" speedFactor="1.0" accel="2.6" decel="4.5" sigma="0.0" speedDev="0.0" length="4.5" maxSpeed="13.9" guiShape="passenger" />
  <vType id="car_36" speedFactor="1.0" accel="2.6" decel="4.5" sigma="0.0" speedDev="0.0" length="4.5" maxSpeed="13.9" guiShape="passenger" />
  <vType id="car_48" speedFactor="1.0" accel="2.6" decel="4.5" sigma="0.0" speedDev="0.0" length="4.5" maxSpeed="13.9" guiShape="passenger" />
  <vType id="car_59" speedFactor="1.0" accel="2.6" decel="4.5" sigma="0.0" speedDev="0.0" length="4.5" maxSpeed="13.9" guiShape="passenger" />
  <vType id="car_79" speedFactor="1.0" accel="2.6" decel="4.5" sigma="0.0" speedDev="0.0" length="4.5" maxSpeed="13.9" guiShape="passenger" />
  <vType id="car_104" speedFactor="1.0" accel="2.6" decel="4.5" sigma="0.0" speedDev="0.0" length="4.5" maxSpeed="13.9" guiShape="passenger" />
  <vType id="car_37" speedFactor="1.0" accel="2.6" decel="4.5" sigma="0.0" speedDev="0.0" length="4.5" maxSpeed="13.9" guiShape="passenger" />
  <vType id="car_49" speedFactor="1.0" accel="2.6" decel="4.5" sigma="0.0" speedDev="0.0" length="4.5" maxSpeed="13.9" guiShape="passenger" />
  <vType id="car_80" speedFactor="1.0" accel="2.6" decel="4.5" sigma="0.0" speedDev="0.0" length="4.5" maxSpeed="13.9" guiShape="passenger" />
  <vType id="car_50" speedFactor="1.0" accel="2.6" decel="4.5" sigma="0.0" speedDev="0.0" length="4.5" maxSpeed="13.9" guiShape="passenger" />
  <vType id="car_216" speedFactor="1.0" accel="2.6" decel="4.5" sigma="0.0" speedDev="0.0" length="4.5" maxSpeed="13.9" guiShape="passenger" />
  <vType id="car_81" speedFactor="1.0" accel="2.6" decel="4.5" sigma="0.0" speedDev="0.0" length="4.5" maxSpeed="13.9" guiShape="passenger" />
  <vType id="car_105" speedFactor="1.0" accel="2.6" decel="4.5" sigma="0.0" speedDev="0.0" length="4.5" maxSpeed="13.9" guiShape="passenger" />
  <vType id="car_179" speedFactor="1.0" accel="2.6" decel="4.5" sigma="0.0" speedDev="0.0" length="4.5" maxSpeed="13.9" guiShape="passenger" />
  <vType id="car_220" speedFactor="1.0" accel="2.6" decel="4.5" sigma="0.0" speedDev="0.0" length="4.5" maxSpeed="13.9" guiShape="passenger" />
  <vType id="car_217" speedFactor="1.0" accel="2.6" decel="4.5" sigma="0.0" speedDev="0.0" length="4.5" maxSpeed="13.9" guiShape="passenger" />
  <vType id="car_82" speedFactor="1.0" accel="2.6" decel="4.5" sigma="0.0" speedDev="0.0" length="4.5" maxSpeed="13.9" guiShape="passenger" />
  <vType id="car_221" speedFactor="1.0" accel="2.6" decel="4.5" sigma="0.0" speedDev="0.0" length="4.5" maxSpeed="13.9" guiShape="passenger" />
  <vType id="car_225" speedFactor="1.0" accel="2.6" decel="4.5" sigma="0.0" speedDev="0.0" length="4.5" maxSpeed="13.9" guiShape="passenger" />
  <vType id="car_188" speedFactor="1.0" accel="2.6" decel="4.5" sigma="0.0" speedDev="0.0" length="4.5" maxSpeed="13.9" guiShape="passenger" />
  <vType id="car_215" speedFactor="1.0" accel="2.6" decel="4.5" sigma="0.0" speedDev="0.0" length="4.5" maxSpeed="13.9" guiShape="passenger" />
  <vType id="car_229" speedFactor="1.0" accel="2.6" decel="4.5" sigma="0.0" speedDev="0.0" length="4.5" maxSpeed="13.9" guiShape="passenger" />
  <vType id="car_226" speedFactor="1.0" accel="2.6" decel="4.5" sigma="0.0" speedDev="0.0" length="4.5" maxSpeed="13.9" guiShape="passenger" />
  <vType id="car_189" speedFactor="1.0" accel="2.6" decel="4.5" sigma="0.0" speedDev="0.0" length="4.5" maxSpeed="13.9" guiShape="passenger" />
  <vType id="car_227" speedFactor="1.0" accel="2.6" decel="4.5" sigma="0.0" speedDev="0.0" length="4.5" maxSpeed="13.9" guiShape="passenger" />
  <vType id="car_218" speedFactor="1.0" accel="2.6" decel="4.5" sigma="0.0" speedDev="0.0" length="4.5" maxSpeed="13.9" guiShape="passenger" />
  <vType id="car_222" speedFactor="1.0" accel="2.6" decel="4.5" sigma="0.0" speedDev="0.0" length="4.5" maxSpeed="13.9" guiShape="passenger" />
  <vType id="car_230" speedFactor="1.0" accel="2.6" decel="4.5" sigma="0.0" speedDev="0.0" length="4.5" maxSpeed="13.9" guiShape="passenger" />
  <vType id="car_219" speedFactor="1.0" accel="2.6" decel="4.5" sigma="0.0" speedDev="0.0" length="4.5" maxSpeed="13.9" guiShape="passenger" />
  <vType id="car_106" speedFactor="1.0" accel="2.6" decel="4.5" sigma="0.0" speedDev="0.0" length="4.5" maxSpeed="13.9" guiShape="passenger" />
  <vType id="car_231" speedFactor="1.0" accel="2.6" decel="4.5" sigma="0.0" speedDev="0.0" length="4.5" maxSpeed="13.9" guiShape="passenger" />
  <vType id="car_223" speedFactor="1.0" accel="2.6" decel="4.5" sigma="0.0" speedDev="0.0" length="4.5" maxSpeed="13.9" guiShape="passenger" />
  <vType id="car_107" speedFactor="1.0" accel="2.6" decel="4.5" sigma="0.0" speedDev="0.0" length="4.5" maxSpeed="13.9" guiShape="passenger" />
  <vType id="car_108" speedFactor="1.0" accel="2.6" decel="4.5" sigma="0.0" speedDev="0.0" length="4.5" maxSpeed="13.9" guiShape="passenger" />
  <vType id="car_180" speedFactor="1.0" accel="2.6" decel="4.5" sigma="0.0" speedDev="0.0" length="4.5" maxSpeed="13.9" guiShape="passenger" />
  <vType id="car_208" speedFactor="1.0" accel="2.6" decel="4.5" sigma="0.0" speedDev="0.0" length="4.5" maxSpeed="13.9" guiShape="passenger" />
  <vType id="car_118" speedFactor="1.0" accel="2.6" decel="4.5" sigma="0.0" speedDev="0.0" length="4.5" maxSpeed="13.9" guiShape="passenger" />
  <vType id="car_113" speedFactor="1.0" accel="2.6" decel="4.5" sigma="0.0" speedDev="0.0" length="4.5" maxSpeed="13.9" guiShape="passenger" />
  <vType id="car_209" speedFactor="1.0" accel="2.6" decel="4.5" sigma="0.0" speedDev="0.0" length="4.5" maxSpeed="13.9" guiShape="passenger" />
  <vType id="car_228" speedFactor="1.0" accel="2.6" decel="4.5" sigma="0.0" speedDev="0.0" length="4.5" maxSpeed="13.9" guiShape="passenger" />
  <vType id="car_133" speedFactor="1.0" accel="2.6" decel="4.5" sigma="0.0" speedDev="0.0" length="4.5" maxSpeed="13.9" guiShape="passenger" />
  <vType id="car_224" speedFactor="1.0" accel="2.6" decel="4.5" sigma="0.0" speedDev="0.0" length="4.5" maxSpeed="13.9" guiShape="passenger" />
  <vType id="car_114" speedFactor="1.0" accel="2.6" decel="4.5" sigma="0.0" speedDev="0.0" length="4.5" maxSpeed="13.9" guiShape="passenger" />
  <vType id="car_119" speedFactor="1.0" accel="2.6" decel="4.5" sigma="0.0" speedDev="0.0" length="4.5" maxSpeed="13.9" guiShape="passenger" />
  <vType id="car_232" speedFactor="1.0" accel="2.6" decel="4.5" sigma="0.0" speedDev="0.0" length="4.5" maxSpeed="13.9" guiShape="passenger" />
  <vType id="car_181" speedFactor="1.0" accel="2.6" decel="4.5" sigma="0.0" speedDev="0.0" length="4.5" maxSpeed="13.9" guiShape="passenger" />
  <vType id="car_120" speedFactor="1.0" accel="2.6" decel="4.5" sigma="0.0" speedDev="0.0" length="4.5" maxSpeed="13.9" guiShape="passenger" />
  <vType id="car_210" speedFactor="1.0" accel="2.6" decel="4.5" sigma="0.0" speedDev="0.0" length="4.5" maxSpeed="13.9" guiShape="passenger" />
  <vType id="car_134" speedFactor="1.0" accel="2.6" decel="4.5" sigma="0.0" speedDev="0.0" length="4.5" maxSpeed="13.9" guiShape="passenger" />
  <vType id="car_115" speedFactor="1.0" accel="2.6" decel="4.5" sigma="0.0" speedDev="0.0" length="4.5" maxSpeed="13.9" guiShape="passenger" />
  <vType id="car_121" speedFactor="1.0" accel="2.6" decel="4.5" sigma="0.0" speedDev="0.0" length="4.5" maxSpeed="13.9" guiShape="passenger" />
  <vType id="car_116" speedFactor="1.0" accel="2.6" decel="4.5" sigma="0.0" speedDev="0.0" length="4.5" maxSpeed="13.9" guiShape="passenger" />
  <vType id="car_238" speedFactor="1.0" accel="2.6" decel="4.5" sigma="0.0" speedDev="0.0" length="4.5" maxSpeed="13.9" guiShape="passenger" />
  <vType id="car_117" speedFactor="1.0" accel="2.6" decel="4.5" sigma="0.0" speedDev="0.0" length="4.5" maxSpeed="13.9" guiShape="passenger" />
  <vType id="car_182" speedFactor="1.0" accel="2.6" decel="4.5" sigma="0.0" speedDev="0.0" length="4.5" maxSpeed="13.9" guiShape="passenger" />
  <vType id="car_135" speedFactor="1.0" accel="2.6" decel="4.5" sigma="0.0" speedDev="0.0" length="4.5" maxSpeed="13.9" guiShape="passenger" />
  <vType id="car_243" speedFactor="1.0" accel="2.6" decel="4.5" sigma="0.0" speedDev="0.0" length="4.5" maxSpeed="13.9" guiShape="passenger" />
  <vType id="car_244" speedFactor="1.0" accel="2.6" decel="4.5" sigma="0.0" speedDev="0.0" length="4.5" maxSpeed="13.9" guiShape="passenger" />
  <vType id="car_239" speedFactor="1.0" accel="2.6" decel="4.5" sigma="0.0" speedDev="0.0" length="4.5" maxSpeed="13.9" guiShape="passenger" />
  <vType id="car_139" speedFactor="1.0" accel="2.6" decel="4.5" sigma="0.0" speedDev="0.0" length="4.5" maxSpeed="13.9" guiShape="passenger" />
  <vType id="car_140" speedFactor="1.0" accel="2.6" decel="4.5" sigma="0.0" speedDev="0.0" length="4.5" maxSpeed="13.9" guiShape="passenger" />
  <vType id="car_245" speedFactor="1.0" accel="2.6" decel="4.5" sigma="0.0" speedDev="0.0" length="4.5" maxSpeed="13.9" guiShape="passenger" />
  <vType id="car_246" speedFactor="1.0" accel="2.6" decel="4.5" sigma="0.0" speedDev="0.0" length="4.5" maxSpeed="13.9" guiShape="passenger" />
  <vType id="car_183" speedFactor="1.0" accel="2.6" decel="4.5" sigma="0.0" speedDev="0.0" length="4.5" maxSpeed="13.9" guiShape="passenger" />
  <vType id="car_211" speedFactor="1.0" accel="2.6" decel="4.5" sigma="0.0" speedDev="0.0" length="4.5" maxSpeed="13.9" guiShape="passenger" />
  <vType id="car_247" speedFactor="1.0" accel="2.6" decel="4.5" sigma="0.0" speedDev="0.0" length="4.5" maxSpeed="13.9" guiShape="passenger" />
  <vType id="car_141" speedFactor="1.0" accel="2.6" decel="4.5" sigma="0.0" speedDev="0.0" length="4.5" maxSpeed="13.9" guiShape="passenger" />
  <vType id="car_240" speedFactor="1.0" accel="2.6" decel="4.5" sigma="0.0" speedDev="0.0" length="4.5" maxSpeed="13.9" guiShape="passenger" />
  <vType id="car_212" speedFactor="1.0" accel="2.6" decel="4.5" sigma="0.0" speedDev="0.0" length="4.5" maxSpeed="13.9" guiShape="passenger" />
  <vType id="car_241" speedFactor="1.0" accel="2.6" decel="4.5" sigma="0.0" speedDev="0.0" length="4.5" maxSpeed="13.9" guiShape="passenger" />
  <vType id="car_248" speedFactor="1.0" accel="2.6" decel="4.5" sigma="0.0" speedDev="0.0" length="4.5" maxSpeed="13.9" guiShape="passenger" />
  <vType id="car_184" speedFactor="1.0" accel="2.6" decel="4.5" sigma="0.0" speedDev="0.0" length="4.5" maxSpeed="13.9" guiShape="passenger" />
  <vType id="car_190" speedFactor="1.0" accel="2.6" decel="4.5" sigma="0.0" speedDev="0.0" length="4.5" maxSpeed="13.9" guiShape="passenger" />
  <vType id="car_125" speedFactor="1.0" accel="2.6" decel="4.5" sigma="0.0" speedDev="0.0" length="4.5" maxSpeed="13.9" guiShape="passenger" />
  <vType id="car_129" speedFactor="1.0" accel="2.6" decel="4.5" sigma="0.0" speedDev="0.0" length="4.5" maxSpeed="13.9" guiShape="passenger" />
  <vType id="car_213" speedFactor="1.0" accel="2.6" decel="4.5" sigma="0.0" speedDev="0.0" length="4.5" maxSpeed="13.9" guiShape="passenger" />
  <vType id="car_122" speedFactor="1.0" accel="2.6" decel="4.5" sigma="0.0" speedDev="0.0" length="4.5" maxSpeed="13.9" guiShape="passenger" />
  <vType id="car_187" speedFactor="1.0" accel="2.6" decel="4.5" sigma="0.0" speedDev="0.0" length="4.5" maxSpeed="13.9" guiShape="passenger" />
  <vType id="car_186" speedFactor="1.0" accel="2.6" decel="4.5" sigma="0.0" speedDev="0.0" length="4.5" maxSpeed="13.9" guiShape="passenger" />
  <vType id="car_185" speedFactor="1.0" accel="2.6" decel="4.5" sigma="0.0" speedDev="0.0" length="4.5" maxSpeed="13.9" guiShape="passenger" />
  <vType id="car_126" speedFactor="1.0" accel="2.6" decel="4.5" sigma="0.0" speedDev="0.0" length="4.5" maxSpeed="13.9" guiShape="passenger" />
  <vType id="car_123" speedFactor="1.0" accel="2.6" decel="4.5" sigma="0.0" speedDev="0.0" length="4.5" maxSpeed="13.9" guiShape="passenger" />
  <vType id="car_214" speedFactor="1.0" accel="2.6" decel="4.5" sigma="0.0" speedDev="0.0" length="4.5" maxSpeed="13.9" guiShape="passenger" />
  <vType id="car_130" speedFactor="1.0" accel="2.6" decel="4.5" sigma="0.0" speedDev="0.0" length="4.5" maxSpeed="13.9" guiShape="passenger" />
  <vType id="car_127" speedFactor="1.0" accel="2.6" decel="4.5" sigma="0.0" speedDev="0.0" length="4.5" maxSpeed="13.9" guiShape="passenger" />
  <vType id="car_131" speedFactor="1.0" accel="2.6" decel="4.5" sigma="0.0" speedDev="0.0" length="4.5" maxSpeed="13.9" guiShape="passenger" />
  <vType id="car_128" speedFactor="1.0" accel="2.6" decel="4.5" sigma="0.0" speedDev="0.0" length="4.5" maxSpeed="13.9" guiShape="passenger" />
  <vType id="car_124" speedFactor="1.0" accel="2.6" decel="4.5" sigma="0.0" speedDev="0.0" length="4.5" maxSpeed="13.9" guiShape="passenger" />
  <vType id="car_191" speedFactor="1.0" accel="2.6" decel="4.5" sigma="0.0" speedDev="0.0" length="4.5" maxSpeed="13.9" guiShape="passenger" />
  <vType id="car_132" speedFactor="1.0" accel="2.6" decel="4.5" sigma="0.0" speedDev="0.0" length="4.5" maxSpeed="13.9" guiShape="passenger" />
  <vType id="car_143" speedFactor="1.0" accel="2.6" decel="4.5" sigma="0.0" speedDev="0.0" length="4.5" maxSpeed="13.9" guiShape="passenger" />
  <vType id="car_157" speedFactor="1.0" accel="2.6" decel="4.5" sigma="0.0" speedDev="0.0" length="4.5" maxSpeed="13.9" guiShape="passenger" />
  <vType id="car_192" speedFactor="1.0" accel="2.6" decel="4.5" sigma="0.0" speedDev="0.0" length="4.5" maxSpeed="13.9" guiShape="passenger" />
  <vType id="car_270" speedFactor="1.0" accel="2.6" decel="4.5" sigma="0.0" speedDev="0.0" length="4.5" maxSpeed="13.9" guiShape="passenger" />
  <vType id="car_169" speedFactor="1.0" accel="2.6" decel="4.5" sigma="0.0" speedDev="0.0" length="4.5" maxSpeed="13.9" guiShape="passenger" />
  <vType id="car_170" speedFactor="1.0" accel="2.6" decel="4.5" sigma="0.0" speedDev="0.0" length="4.5" maxSpeed="13.9" guiShape="passenger" />
  <vType id="car_249" speedFactor="1.0" accel="2.6" decel="4.5" sigma="0.0" speedDev="0.0" length="4.5" maxSpeed="13.9" guiShape="passenger" />
  <vType id="car_144" speedFactor="1.0" accel="2.6" decel="4.5" sigma="0.0" speedDev="0.0" length="4.5" maxSpeed="13.9" guiShape="passenger" />
  <vType id="car_158" speedFactor="1.0" accel="2.6" decel="4.5" sigma="0.0" speedDev="0.0" length="4.5" maxSpeed="13.9" guiShape="passenger" />
  <vType id="car_159" speedFactor="1.0" accel="2.6" decel="4.5" sigma="0.0" speedDev="0.0" length="4.5" maxSpeed="13.9" guiShape="passenger" />
  <vType id="car_260" speedFactor="1.0" accel="2.6" decel="4.5" sigma="0.0" speedDev="0.0" length="4.5" maxSpeed="13.9" guiShape="passenger" />
  <vType id="car_271" speedFactor="1.0" accel="2.6" decel="4.5" sigma="0.0" speedDev="0.0" length="4.5" maxSpeed="13.9" guiShape="passenger" />
  <vType id="car_145" speedFactor="1.0" accel="2.6" decel="4.5" sigma="0.0" speedDev="0.0" length="4.5" maxSpeed="13.9" guiShape="passenger" />
  <vType id="car_146" speedFactor="1.0" accel="2.6" decel="4.5" sigma="0.0" speedDev="0.0" length="4.5" maxSpeed="13.9" guiShape="passenger" />
  <vType id="car_194" speedFactor="1.0" accel="2.6" decel="4.5" sigma="0.0" speedDev="0.0" length="4.5" maxSpeed="13.9" guiShape="passenger" />
  <vType id="car_193" speedFactor="1.0" accel="2.6" decel="4.5" sigma="0.0" speedDev="0.0" length="4.5" maxSpeed="13.9" guiShape="passenger" />