<?xml version="1.0" encoding="UTF-8"?>

<!-- generated on 2025-12-03T01:29:52.526140-05:00 by Eclipse SUMO netedit 1.25.0
<neteditConfiguration xmlns:xsi="http://www.w3.org/2001/XMLSchema-instance" xsi:noNamespaceSchemaLocation="http://sumo.dlr.de/xsd/neteditConfiguration.xsd">

    <input>
        <sumo-net-file value="C:\Users\hashi\Downloads\traffic_preception\version.net.xml"/>
    </input>

    <output>
        <output-file value="C:\Users\hashi\Downloads\traffic_preception\version.net.xml"/>
    </output>

    <processing>
        <geometry.min-radius.fix.railways value="false"/>
        <geometry.avoid-overlap value="false"/>
        <geometry.max-grade.fix value="false"/>
        <offset.disable-normalization value="true"/>
        <lefthand value="0"/>
    </processing>

    <junctions>
        <no-internal-links value="false"/>
        <no-turnarounds value="true"/>
        <junctions.corner-detail value="5"/>
        <junctions.limit-turn-speed value="5.50"/>
        <rectangular-lane-cut value="0"/>
    </junctions>

    <pedestrian>
        <walkingareas value="0"/>
    </pedestrian>

</neteditConfiguration>
-->

<net version="1.20" junctionCornerDetail="5" limitTurnSpeed="5.50" avoidOverlap="0" xmlns:xsi="http://www.w3.org/2001/XMLSchema-instance" xsi:noNamespaceSchemaLocation="http://sumo.dlr.de/xsd/net_file.xsd">

    <location netOffset="0.00,0.00" convBoundary="-81.36,-45.81,51.73,49.63" origBoundary="-10000000000.00,-10000000000.00,10000000000.00,10000000000.00" projParameter="!"/>

    <edge id=":J0_w0" function="walkingarea">
        <lane id=":J0_w0_0" index="0" allow="pedestrian" speed="2.78" length="34.00" width="2.00" shape="-32.90,49.63 -34.90,49.63 1.10,49.63 -0.90,49.63"/>
    </edge>
    <edge id=":J3_w0" function="walkingarea">
        <lane id=":J3_w0_0" index="0" allow="pedestrian" speed="2.78" length="34.00" width="2.00" shape="51.83,18.58 51.84,20.58 51.65,-15.42 51.66,-13.42"/>
    </edge>
    <edge id=":J5_w0" function="walkingarea">
        <lane id=":J5_w0_0" index="0" allow="pedestrian" speed="2.78" length="30.80" width="2.00" shape="-81.14,-13.27 -81.12,-15.27 -81.49,17.53 -81.47,15.53"/>
    </edge>
    <edge id=":J7_w0" function="walkingarea">
        <lane id=":J7_w0_0" index="0" allow="pedestrian" speed="2.78" length="34.00" width="2.00" shape="3.15,-45.96 5.15,-45.97 -30.85,-45.70 -28.85,-45.71"/>
    </edge>
    <edge id=":clusterJ1_J2_J4_J6_0" function="internal">
        <lane id=":clusterJ1_J2_J4_J6_0_0" index="0" disallow="pedestrian" speed="7.47" length="7.78" shape="-31.30,22.85 -31.71,19.19 -32.94,16.57 -33.89,15.83"/>
    </edge>
    <edge id=":clusterJ1_J2_J4_J6_1" function="internal">
        <lane id=":clusterJ1_J2_J4_J6_1_0" index="0" disallow="pedestrian" speed="13.89" length="40.13" shape="-28.10,22.85 -27.41,11.01 -25.91,2.95 -24.43,-5.10 -23.83,-16.95"/>
        <lane id=":clusterJ1_J2_J4_J6_1_1" index="1" disallow="pedestrian" speed="13.89" length="40.13" shape="-24.90,22.85 -24.21,11.00 -22.71,2.94 -21.23,-5.12 -20.63,-16.97"/>
        <lane id=":clusterJ1_J2_J4_J6_1_2" index="2" disallow="pedestrian" speed="13.89" length="40.13" shape="-21.70,22.85 -21.01,10.99 -19.51,2.93 -18.03,-5.13 -17.43,-16.99"/>
    </edge>
    <edge id=":clusterJ1_J2_J4_J6_4" function="internal">
        <lane id=":clusterJ1_J2_J4_J6_4_0" index="0" disallow="pedestrian" speed="13.71" length="21.36" shape="-18.50,22.85 -16.88,10.64 -12.49,2.74"/>
        <lane id=":clusterJ1_J2_J4_J6_4_1" index="1" disallow="pedestrian" speed="12.89" length="9.58" shape="-15.30,22.85 -14.05,13.36"/>
    </edge>
    <edge id=":clusterJ1_J2_J4_J6_24" function="internal">
        <lane id=":clusterJ1_J2_J4_J6_24_0" index="0" disallow="pedestrian" speed="7.47" length="4.33" shape="-33.89,15.83 -35.00,14.97 -37.87,14.42"/>
    </edge>
    <edge id=":clusterJ1_J2_J4_J6_25" function="internal">
        <lane id=":clusterJ1_J2_J4_J6_25_0" index="0" disallow="pedestrian" speed="13.71" length="22.13" shape="-12.49,2.74 -12.02,1.90 -3.91,-3.38 7.44,-5.18"/>
        <lane id=":clusterJ1_J2_J4_J6_25_1" index="0" disallow="pedestrian" speed="12.89" length="28.77" shape="-14.05,13.36 -13.88,12.04 -9.61,4.29 -2.50,-0.38 7.46,-1.98"/>
    </edge>
    <edge id=":clusterJ1_J2_J4_J6_6" function="internal">
        <lane id=":clusterJ1_J2_J4_J6_6_0" index="0" disallow="pedestrian" speed="7.65" length="8.03" shape="7.56,17.22 3.16,17.59 0.02,18.66 -0.20,18.85"/>
    </edge>
    <edge id=":clusterJ1_J2_J4_J6_7" function="internal">
        <lane id=":clusterJ1_J2_J4_J6_7_0" index="0" disallow="pedestrian" speed="13.89" length="45.36" shape="7.54,14.02 -37.87,14.42"/>
        <lane id=":clusterJ1_J2_J4_J6_7_1" index="1" disallow="pedestrian" speed="13.89" length="45.36" shape="7.53,10.82 -37.83,11.22"/>
        <lane id=":clusterJ1_J2_J4_J6_7_2" index="2" disallow="pedestrian" speed="13.89" length="45.36" shape="7.51,7.62 -37.80,8.02"/>
    </edge>
    <edge id=":clusterJ1_J2_J4_J6_10" function="internal">
        <lane id=":clusterJ1_J2_J4_J6_10_0" index="0" disallow="pedestrian" speed="13.15" length="18.16" shape="7.49,4.42 -4.75,3.14 -10.07,0.72"/>
        <lane id=":clusterJ1_J2_J4_J6_10_1" index="1" disallow="pedestrian" speed="12.31" length="6.49" shape="7.47,1.22 1.02,0.57"/>
    </edge>
    <edge id=":clusterJ1_J2_J4_J6_26" function="internal">
        <lane id=":clusterJ1_J2_J4_J6_26_0" index="0" disallow="pedestrian" speed="7.65" length="4.81" shape="-0.20,18.85 -1.87,20.41 -2.50,22.85"/>
    </edge>
    <edge id=":clusterJ1_J2_J4_J6_27" function="internal">
        <lane id=":clusterJ1_J2_J4_J6_27_0" index="0" disallow="pedestrian" speed="13.15" length="21.91" shape="-10.07,0.72 -13.52,-0.85 -18.81,-7.56 -20.63,-16.97"/>
        <lane id=":clusterJ1_J2_J4_J6_27_1" index="0" disallow="pedestrian" speed="12.31" length="28.45" shape="1.02,0.57 -3.37,0.13 -11.13,-3.27 -15.82,-8.98 -17.43,-16.99"/>
    </edge>
    <edge id=":clusterJ1_J2_J4_J6_12" function="internal">
        <lane id=":clusterJ1_J2_J4_J6_12_0" index="0" disallow="pedestrian" speed="6.51" length="4.74" shape="1.77,-17.14 2.14,-14.70 3.20,-12.96 3.40,-12.84"/>
    </edge>
    <edge id=":clusterJ1_J2_J4_J6_13" function="internal">
        <lane id=":clusterJ1_J2_J4_J6_13_0" index="0" disallow="pedestrian" speed="13.89" length="40.25" shape="-1.43,-17.12 -2.03,-5.22 -3.51,2.87 -5.01,10.96 -5.70,22.85"/>
        <lane id=":clusterJ1_J2_J4_J6_13_1" index="1" disallow="pedestrian" speed="13.89" length="40.25" shape="-4.63,-17.09 -5.23,-5.20 -6.71,2.88 -8.21,10.96 -8.90,22.85"/>
        <lane id=":clusterJ1_J2_J4_J6_13_2" index="2" disallow="pedestrian" speed="13.89" length="40.25" shape="-7.83,-17.07 -8.43,-5.18 -9.91,2.89 -11.41,10.97 -12.10,22.85"/>
    </edge>
    <edge id=":clusterJ1_J2_J4_J6_16" function="internal">
        <lane id=":clusterJ1_J2_J4_J6_16_0" index="0" disallow="pedestrian" speed="13.75" length="21.34" shape="-11.03,-17.04 -12.62,-4.56 -16.92,3.07"/>
        <lane id=":clusterJ1_J2_J4_J6_16_1" index="1" disallow="pedestrian" speed="12.94" length="9.27" shape="-14.23,-17.02 -15.39,-7.82"/>
    </edge>
    <edge id=":clusterJ1_J2_J4_J6_28" function="internal">
        <lane id=":clusterJ1_J2_J4_J6_28_0" index="0" disallow="pedestrian" speed="6.51" length="4.28" shape="3.40,-12.84 4.96,-11.92 7.40,-11.58"/>
    </edge>
    <edge id=":clusterJ1_J2_J4_J6_29" function="internal">
        <lane id=":clusterJ1_J2_J4_J6_29_0" index="0" disallow="pedestrian" speed="13.75" length="23.26" shape="-16.92,3.07 -17.62,4.31 -26.03,9.57 -37.83,11.22"/>
        <lane id=":clusterJ1_J2_J4_J6_29_1" index="0" disallow="pedestrian" speed="12.94" length="30.10" shape="-15.39,-7.82 -15.63,-5.96 -20.02,1.89 -27.41,6.56 -37.80,8.02"/>
    </edge>
    <edge id=":clusterJ1_J2_J4_J6_18" function="internal">
        <lane id=":clusterJ1_J2_J4_J6_18_0" index="0" disallow="pedestrian" speed="7.75" length="8.63" shape="-37.58,-11.18 -32.95,-11.49 -29.65,-12.55 -29.26,-12.90"/>
    </edge>
    <edge id=":clusterJ1_J2_J4_J6_19" function="internal">
        <lane id=":clusterJ1_J2_J4_J6_19_0" index="0" disallow="pedestrian" speed="13.89" length="45.10" shape="-37.62,-7.98 7.42,-8.38"/>
        <lane id=":clusterJ1_J2_J4_J6_19_1" index="1" disallow="pedestrian" speed="13.89" length="45.10" shape="-37.65,-4.78 7.44,-5.18"/>
        <lane id=":clusterJ1_J2_J4_J6_19_2" index="2" disallow="pedestrian" speed="13.89" length="45.10" shape="-37.69,-1.58 7.46,-1.98"/>
    </edge>
    <edge id=":clusterJ1_J2_J4_J6_22" function="internal">
        <lane id=":clusterJ1_J2_J4_J6_22_0" index="0" disallow="pedestrian" speed="13.26" length="18.24" shape="-37.73,1.62 -25.11,3.07 -20.05,5.33"/>
        <lane id=":clusterJ1_J2_J4_J6_22_1" index="1" disallow="pedestrian" speed="12.42" length="5.97" shape="-37.76,4.82 -31.83,5.47"/>
    </edge>
    <edge id=":clusterJ1_J2_J4_J6_30" function="internal">
        <lane id=":clusterJ1_J2_J4_J6_30_0" index="0" disallow="pedestrian" speed="7.75" length="4.80" shape="-29.26,-12.90 -27.67,-14.36 -27.03,-16.92"/>
    </edge>
    <edge id=":clusterJ1_J2_J4_J6_31" function="internal">
        <lane id=":clusterJ1_J2_J4_J6_31_0" index="0" disallow="pedestrian" speed="13.26" length="22.19" shape="-20.05,5.33 -16.11,7.09 -10.70,13.69 -8.90,22.85"/>
        <lane id=":clusterJ1_J2_J4_J6_31_1" index="0" disallow="pedestrian" speed="12.42" length="29.37" shape="-31.83,5.47 -26.53,6.06 -18.52,9.47 -13.70,15.07 -12.10,22.85"/>
    </edge>
    <edge id=":clusterJ1_J2_J4_J6_c0" function="crossing" crossingEdges="NN N">
        <lane id=":clusterJ1_J2_J4_J6_c0_0" index="0" allow="pedestrian" speed="2.78" length="32.00" width="4.00" shape="-0.90,20.85 -32.90,20.85" outlineShape="-0.90,22.85 -33.00,22.85 -33.04,20.78 -33.45,19.08 -33.57,18.85 -32.90,18.85 -0.90,18.85 1.42,19.78 1.22,19.85 0.04,20.63 -0.66,21.63"/>
    </edge>
    <edge id=":clusterJ1_J2_J4_J6_c1" function="crossing" crossingEdges="EE E">
        <lane id=":clusterJ1_J2_J4_J6_c1_0" index="0" allow="pedestrian" speed="2.78" length="32.00" width="4.00" shape="5.40,-13.17 5.57,18.83" outlineShape="7.40,-13.18 7.57,18.82 4.98,18.94 3.57,19.17 3.37,-17.16 3.49,-15.93 3.83,-14.94 4.39,-14.16 5.17,-13.61 6.17,-13.28"/>
    </edge>
    <edge id=":clusterJ1_J2_J4_J6_c2" function="crossing" crossingEdges="SS S">
        <lane id=":clusterJ1_J2_J4_J6_c2_0" index="0" allow="pedestrian" speed="2.78" length="32.00" width="4.00" shape="-28.61,-14.91 3.39,-15.15" outlineShape="-28.63,-16.91 3.37,-17.15 3.47,-17.15 3.49,-15.93 3.83,-14.94 4.39,-14.16 5.17,-13.61 5.51,-13.50 3.40,-13.15 -28.60,-12.91 -30.88,-13.75 -29.61,-14.57 -28.87,-15.62"/>
    </edge>
    <edge id=":clusterJ1_J2_J4_J6_c3" function="crossing" crossingEdges="WW W">
        <lane id=":clusterJ1_J2_J4_J6_c3_0" index="0" allow="pedestrian" speed="2.78" length="28.80" width="4.00" shape="-35.89,16.04 -35.56,-12.76" outlineShape="-37.89,16.02 -37.56,-12.78 -34.83,-12.87 -33.56,-13.05 -33.91,18.21 -34.15,17.76 -35.12,16.80 -36.36,16.22"/>
    </edge>
    <edge id=":clusterJ1_J2_J4_J6_w0" function="walkingarea">
        <lane id=":clusterJ1_J2_J4_J6_w0_0" index="0" allow="pedestrian" speed="2.78" length="5.10" width="4.00" shape="-37.89,16.02 -37.91,18.02 -34.90,22.85 -32.90,22.85 -33.04,20.78 -33.45,19.08 -34.15,17.76 -35.12,16.80 -36.36,16.22"/>
    </edge>
    <edge id=":clusterJ1_J2_J4_J6_w1" function="walkingarea">
        <lane id=":clusterJ1_J2_J4_J6_w1_0" index="0" allow="pedestrian" speed="2.78" length="5.77" width="4.00" shape="-0.90,22.85 1.10,22.85 7.58,20.82 7.57,18.82 4.98,18.94 2.86,19.29 1.22,19.85 0.04,20.63 -0.66,21.63"/>
    </edge>
    <edge id=":clusterJ1_J2_J4_J6_w2" function="walkingarea">
        <lane id=":clusterJ1_J2_J4_J6_w2_0" index="0" allow="pedestrian" speed="2.78" length="3.30" width="4.00" shape="7.40,-13.18 7.39,-15.18 5.37,-17.17 3.37,-17.15 3.49,-15.93 3.83,-14.94 4.39,-14.16 5.17,-13.61 6.17,-13.28"/>
    </edge>
    <edge id=":clusterJ1_J2_J4_J6_w3" function="walkingarea">
        <lane id=":clusterJ1_J2_J4_J6_w3_0" index="0" allow="pedestrian" speed="2.78" length="6.09" width="4.00" shape="-28.63,-16.91 -30.63,-16.89 -37.54,-14.78 -37.56,-12.78 -34.83,-12.87 -32.59,-13.19 -30.85,-13.76 -29.61,-14.57 -28.87,-15.62"/>
    </edge>

    <edge id="E" from="J3" to="clusterJ1_J2_J4_J6" priority="-1" shape="51.73,-0.62 5.56,-0.37">
        <lane id="E_0" index="0" allow="pedestrian" speed="13.89" length="44.27" width="2.00" shape="51.84,19.58 7.57,19.82"/>
        <lane id="E_1" index="1" disallow="pedestrian" speed="13.89" length="44.27" shape="51.83,16.98 7.56,17.22"/>
        <lane id="E_2" index="2" disallow="pedestrian" speed="13.89" length="44.27" shape="51.81,13.78 7.54,14.02"/>
        <lane id="E_3" index="3" disallow="pedestrian" speed="13.89" length="44.27" shape="51.79,10.58 7.53,10.82"/>
        <lane id="E_4" index="4" disallow="pedestrian" speed="13.89" length="44.27" shape="51.77,7.38 7.51,7.62"/>
        <lane id="E_5" index="5" disallow="pedestrian" speed="13.89" length="44.27" shape="51.76,4.18 7.49,4.42"/>
        <lane id="E_6" index="6" disallow="pedestrian" speed="13.89" length="44.27" shape="51.74,0.98 7.47,1.22"/>
    </edge>
    <edge id="EE" from="clusterJ1_J2_J4_J6" to="J3" priority="-1" shape="5.56,-0.37 51.73,-0.62">
        <lane id="EE_0" index="0" allow="pedestrian" speed="13.89" length="44.27" width="2.00" shape="7.39,-14.18 51.66,-14.42"/>
        <lane id="EE_1" index="1" disallow="pedestrian" speed="13.89" length="44.27" shape="7.40,-11.58 51.67,-11.82"/>
        <lane id="EE_2" index="2" disallow="pedestrian" speed="13.89" length="44.27" shape="7.42,-8.38 51.69,-8.62"/>
        <lane id="EE_3" index="3" disallow="pedestrian" speed="13.89" length="44.27" shape="7.44,-5.18 51.70,-5.42"/>
        <lane id="EE_4" index="4" disallow="pedestrian" speed="13.89" length="44.27" shape="7.46,-1.98 51.72,-2.22"/>
    </edge>
    <edge id="N" from="J0" to="clusterJ1_J2_J4_J6" priority="-1" shape="-13.70,49.63 -13.70,20.49">
        <lane id="N_0" index="0" allow="pedestrian" speed="13.89" length="26.78" width="2.00" shape="-33.90,49.63 -33.90,22.85"/>
        <lane id="N_1" index="1" disallow="pedestrian" speed="13.89" length="26.78" shape="-31.30,49.63 -31.30,22.85"/>
        <lane id="N_2" index="2" disallow="pedestrian" speed="13.89" length="26.78" shape="-28.10,49.63 -28.10,22.85"/>
        <lane id="N_3" index="3" disallow="pedestrian" speed="13.89" length="26.78" shape="-24.90,49.63 -24.90,22.85"/>
        <lane id="N_4" index="4" disallow="pedestrian" speed="13.89" length="26.78" shape="-21.70,49.63 -21.70,22.85"/>
        <lane id="N_5" index="5" disallow="pedestrian" speed="13.89" length="26.78" shape="-18.50,49.63 -18.50,22.85"/>
        <lane id="N_6" index="6" disallow="pedestrian" speed="13.89" length="26.78" shape="-15.30,49.63 -15.30,22.85"/>
    </edge>
    <edge id="NN" from="clusterJ1_J2_J4_J6" to="J0" priority="-1" shape="-13.70,20.49 -13.70,49.63">
        <lane id="NN_0" index="0" allow="pedestrian" speed="13.89" length="26.78" width="2.00" shape="0.10,22.85 0.10,49.63"/>
        <lane id="NN_1" index="1" disallow="pedestrian" speed="13.89" length="26.78" shape="-2.50,22.85 -2.50,49.63"/>
        <lane id="NN_2" index="2" disallow="pedestrian" speed="13.89" length="26.78" shape="-5.70,22.85 -5.70,49.63"/>
        <lane id="NN_3" index="3" disallow="pedestrian" speed="13.89" length="26.78" shape="-8.90,22.85 -8.90,49.63"/>
        <lane id="NN_4" index="4" disallow="pedestrian" speed="13.89" length="26.78" shape="-12.10,22.85 -12.10,49.63"/>
    </edge>
    <edge id="S" from="J7" to="clusterJ1_J2_J4_J6" priority="-1" shape="-16.05,-45.81 -15.81,-14.44">
        <lane id="S_0" index="0" allow="pedestrian" speed="13.89" length="28.80" width="2.00" shape="4.15,-45.96 4.37,-17.16"/>
        <lane id="S_1" index="1" disallow="pedestrian" speed="13.89" length="28.80" shape="1.55,-45.94 1.77,-17.14"/>
        <lane id="S_2" index="2" disallow="pedestrian" speed="13.89" length="28.80" shape="-1.65,-45.92 -1.43,-17.12"/>
        <lane id="S_3" index="3" disallow="pedestrian" speed="13.89" length="28.80" shape="-4.85,-45.90 -4.63,-17.09"/>
        <lane id="S_4" index="4" disallow="pedestrian" speed="13.89" length="28.80" shape="-8.05,-45.87 -7.83,-17.07"/>
        <lane id="S_5" index="5" disallow="pedestrian" speed="13.89" length="28.80" shape="-11.25,-45.85 -11.03,-17.04"/>
        <lane id="S_6" index="6" disallow="pedestrian" speed="13.89" length="28.80" shape="-14.45,-45.82 -14.23,-17.02"/>
    </edge>
    <edge id="SS" from="clusterJ1_J2_J4_J6" to="J7" priority="-1" shape="-15.81,-14.44 -16.05,-45.81">
        <lane id="SS_0" index="0" allow="pedestrian" speed="13.89" length="28.80" width="2.00" shape="-29.63,-16.90 -29.85,-45.70"/>
        <lane id="SS_1" index="1" disallow="pedestrian" speed="13.89" length="28.80" shape="-27.03,-16.92 -27.25,-45.72"/>
        <lane id="SS_2" index="2" disallow="pedestrian" speed="13.89" length="28.80" shape="-23.83,-16.95 -24.05,-45.75"/>
        <lane id="SS_3" index="3" disallow="pedestrian" speed="13.89" length="28.80" shape="-20.63,-16.97 -20.85,-45.77"/>
        <lane id="SS_4" index="4" disallow="pedestrian" speed="13.89" length="28.80" shape="-17.43,-16.99 -17.65,-45.80"/>
    </edge>
    <edge id="W" from="J5" to="clusterJ1_J2_J4_J6" priority="-1" shape="-81.36,5.93 -37.78,6.42">
        <lane id="W_0" index="0" allow="pedestrian" speed="13.89" length="43.58" width="2.00" shape="-81.13,-14.27 -37.55,-13.78"/>
        <lane id="W_1" index="1" disallow="pedestrian" speed="13.89" length="43.58" shape="-81.16,-11.67 -37.58,-11.18"/>
        <lane id="W_2" index="2" disallow="pedestrian" speed="13.89" length="43.58" shape="-81.20,-8.47 -37.62,-7.98"/>
        <lane id="W_3" index="3" disallow="pedestrian" speed="13.89" length="43.58" shape="-81.23,-5.27 -37.65,-4.78"/>
        <lane id="W_4" index="4" disallow="pedestrian" speed="13.89" length="43.58" shape="-81.27,-2.07 -37.69,-1.58"/>
        <lane id="W_5" index="5" disallow="pedestrian" speed="13.89" length="43.58" shape="-81.31,1.13 -37.73,1.62"/>
        <lane id="W_6" index="6" disallow="pedestrian" speed="13.89" length="43.58" shape="-81.34,4.33 -37.76,4.82"/>
    </edge>
    <edge id="WW" from="clusterJ1_J2_J4_J6" to="J5" priority="-1" shape="-37.78,6.42 -81.36,5.93">
        <lane id="WW_0" index="0" allow="pedestrian" speed="13.89" length="43.58" width="2.00" shape="-37.90,17.02 -81.48,16.53"/>
        <lane id="WW_1" index="1" disallow="pedestrian" speed="13.89" length="43.58" shape="-37.87,14.42 -81.45,13.93"/>
        <lane id="WW_2" index="2" disallow="pedestrian" speed="13.89" length="43.58" shape="-37.83,11.22 -81.41,10.73"/>
        <lane id="WW_3" index="3" disallow="pedestrian" speed="13.89" length="43.58" shape="-37.80,8.02 -81.38,7.53"/>
    </edge>

    <tlLogic id="clusterJ1_J2_J4_J6" type="static" programID="0" offset="0">
        <phase duration="7"  state="GGGGggGrrrrrGGGGggGrrrrrrGrG"/>
        <phase duration="5"  state="GGGGggGrrrrrGGGGggGrrrrrrrrr"/>
        <phase duration="3"  state="GyyyggGrrrrrGyyyggGrrrrrrrrr"/>
        <phase duration="6"  state="GrrrGGGrrrrrGrrrGGGrrrrrrrrr"/>
        <phase duration="3"  state="GrrryyGrrrrrGrrryyGrrrrrrrrr"/>
        <phase duration="1"  state="GrrrrrGrrrrrGrrrrrGrrrrrrrrr"/>
        <phase duration="7"  state="GrrrrrGGGGggGrrrrrGGGGggGrGr"/>
        <phase duration="5"  state="GrrrrrGGGGggGrrrrrGGGGggrrrr"/>
        <phase duration="3"  state="GrrrrrGyyyggGrrrrrGyyyggrrrr"/>
        <phase duration="6"  state="GrrrrrGrrrGGGrrrrrGrrrGGrrrr"/>
        <phase duration="3"  state="GrrrrrGrrryyGrrrrrGrrryyrrrr"/>
        <phase duration="1"  state="GrrrrrGrrrrrGrrrrrGrrrrrrrrr"/>
    </tlLogic>

    <junction id="J0" type="dead_end" x="-13.70" y="49.63" incLanes="NN_0 NN_1 NN_2 NN_3 NN_4" intLanes="" shape="-13.70,49.63 1.10,49.63 -13.70,49.63"/>
    <junction id="J3" type="dead_end" x="51.73" y="-0.62" incLanes="EE_0 EE_1 EE_2 EE_3 EE_4" intLanes="" shape="51.73,-0.62 51.65,-15.42 51.73,-0.62"/>
    <junction id="J5" type="dead_end" x="-81.36" y="5.93" incLanes="WW_0 WW_1 WW_2 WW_3" intLanes="" shape="-81.36,5.93 -81.49,17.53 -81.36,5.93"/>
    <junction id="J7" type="dead_end" x="-16.05" y="-45.81" incLanes="SS_0 SS_1 SS_2 SS_3 SS_4" intLanes="" shape="-16.05,-45.81 -30.85,-45.70 -16.05,-45.81"/>
    <junction id="clusterJ1_J2_J4_J6" type="traffic_light" x="-15.43" y="3.03" incLanes="N_0 N_1 N_2 N_3 N_4 N_5 N_6 E_0 E_1 E_2 E_3 E_4 E_5 E_6 S_0 S_1 S_2 S_3 S_4 S_5 S_6 W_0 W_1 W_2 W_3 W_4 W_5 W_6 :clusterJ1_J2_J4_J6_w1_0 :clusterJ1_J2_J4_J6_w2_0 :clusterJ1_J2_J4_J6_w3_0 :clusterJ1_J2_J4_J6_w0_0" intLanes=":clusterJ1_J2_J4_J6_24_0 :clusterJ1_J2_J4_J6_1_0 :clusterJ1_J2_J4_J6_1_1 :clusterJ1_J2_J4_J6_1_2 :clusterJ1_J2_J4_J6_25_0 :clusterJ1_J2_J4_J6_25_1 :clusterJ1_J2_J4_J6_26_0 :clusterJ1_J2_J4_J6_7_0 :clusterJ1_J2_J4_J6_7_1 :clusterJ1_J2_J4_J6_7_2 :clusterJ1_J2_J4_J6_27_0 :clusterJ1_J2_J4_J6_27_1 :clusterJ1_J2_J4_J6_28_0 :clusterJ1_J2_J4_J6_13_0 :clusterJ1_J2_J4_J6_13_1 :clusterJ1_J2_J4_J6_13_2 :clusterJ1_J2_J4_J6_29_0 :clusterJ1_J2_J4_J6_29_1 :clusterJ1_J2_J4_J6_30_0 :clusterJ1_J2_J4_J6_19_0 :clusterJ1_J2_J4_J6_19_1 :clusterJ1_J2_J4_J6_19_2 :clusterJ1_J2_J4_J6_31_0 :clusterJ1_J2_J4_J6_31_1 :clusterJ1_J2_J4_J6_c0_0 :clusterJ1_J2_J4_J6_c1_0 :clusterJ1_J2_J4_J6_c2_0 :clusterJ1_J2_J4_J6_c3_0" shape="-34.90,22.85 1.10,22.85 1.82,21.74 2.72,21.35 3.98,21.06 5.60,20.89 7.58,20.82 7.39,-15.18 6.27,-15.40 5.88,-15.67 5.60,-16.06 5.43,-16.56 5.37,-17.17 -30.63,-16.89 -31.39,-15.68 -32.35,-15.27 -33.69,-14.98 -35.42,-14.82 -37.54,-14.78 -37.91,18.02 -36.24,18.57 -35.65,19.24 -35.23,20.18 -34.98,21.39">
        <request index="0"  response="1001000000000000000000000000" foes="1001000000000000001110000000" cont="1"/>
        <request index="1"  response="0101110000000000000000000000" foes="0101111110110000111110000000" cont="0"/>
        <request index="2"  response="0101110000000000010000000000" foes="0101111110110000111110000000" cont="0"/>
        <request index="3"  response="0101110000000000110000000000" foes="0101111110110000111110000000" cont="0"/>
        <request index="4"  response="0011110000001110110000000000" foes="0011111110001110111110000000" cont="1"/>
        <request index="5"  response="0011110000001110110000000000" foes="0011111110001110111110000000" cont="1"/>
        <request index="6"  response="0011000000000000000000000000" foes="0011000000000000000000000000" cont="1"/>
        <request index="7"  response="1010000000111110000000111111" foes="1010110000111110000000111111" cont="0"/>
        <request index="8"  response="1010000000111110000000111111" foes="1010110000111110000000111111" cont="0"/>
        <request index="9"  response="1010000000111110000000111111" foes="1010110000111110000000111111" cont="0"/>
        <request index="10" response="0110001110111110000000111110" foes="0110001110111110000000111110" cont="1"/>
        <request index="11" response="0110001110111110000000111110" foes="0110001110111110000000111110" cont="1"/>
        <request index="12" response="0110000000000000000000000000" foes="0110000000000000000000000000" cont="1"/>
        <request index="13" response="0101000000000000110000000000" foes="0101111110000000111110110000" cont="0"/>
        <request index="14" response="0101010000000000110000000000" foes="0101111110000000111110110000" cont="0"/>
        <request index="15" response="0101110000000000110000000000" foes="0101111110000000111110110000" cont="0"/>
        <request index="16" response="1100110000000000110000001110" foes="1100111110000000111110001110" cont="1"/>
        <request index="17" response="1100110000000000110000001110" foes="1100111110000000111110001110" cont="1"/>
        <request index="18" response="1100000000000000000000000000" foes="1100000000000000000000000000" cont="1"/>
        <request index="19" response="1010000000111110000000111110" foes="1010000000111110110000111110" cont="0"/>
        <request index="20" response="1010000000111110000000111110" foes="1010000000111110110000111110" cont="0"/>
        <request index="21" response="1010000000111110000000111110" foes="1010000000111110110000111110" cont="0"/>
        <request index="22" response="1001000000111110001110111110" foes="1001000000111110001110111110" cont="1"/>
        <request index="23" response="1001000000111110001110111110" foes="1001000000111110001110111110" cont="1"/>
        <request index="24" response="0000000000000000000000000000" foes="0000110000001110000001111111" cont="0"/>
        <request index="25" response="0000000000000000000000000000" foes="0000001110000001111111110000" cont="0"/>
        <request index="26" response="0000000000000000000000000000" foes="0000000001111111110000001110" cont="0"/>
        <request index="27" response="0000000000000000000000000000" foes="0000111111110000001110000001" cont="0"/>
    </junction>

    <junction id=":clusterJ1_J2_J4_J6_24_0" type="internal" x="-33.89" y="15.83" incLanes=":clusterJ1_J2_J4_J6_0_0" intLanes=":clusterJ1_J2_J4_J6_7_0 :clusterJ1_J2_J4_J6_7_1 :clusterJ1_J2_J4_J6_7_2 :clusterJ1_J2_J4_J6_16_0 :clusterJ1_J2_J4_J6_16_1 :clusterJ1_J2_J4_J6_c0_0 :clusterJ1_J2_J4_J6_c3_0"/>
    <junction id=":clusterJ1_J2_J4_J6_25_0" type="internal" x="-12.49" y="2.74" incLanes=":clusterJ1_J2_J4_J6_4_0 S_1 S_2 S_3 S_4" intLanes=":clusterJ1_J2_J4_J6_7_0 :clusterJ1_J2_J4_J6_7_1 :clusterJ1_J2_J4_J6_7_2 :clusterJ1_J2_J4_J6_10_0 :clusterJ1_J2_J4_J6_10_1 :clusterJ1_J2_J4_J6_12_0 :clusterJ1_J2_J4_J6_13_0 :clusterJ1_J2_J4_J6_13_1 :clusterJ1_J2_J4_J6_13_2 :clusterJ1_J2_J4_J6_19_0 :clusterJ1_J2_J4_J6_19_1 :clusterJ1_J2_J4_J6_19_2 :clusterJ1_J2_J4_J6_22_0 :clusterJ1_J2_J4_J6_22_1 :clusterJ1_J2_J4_J6_c0_0 :clusterJ1_J2_J4_J6_c1_0"/>
    <junction id=":clusterJ1_J2_J4_J6_25_1" type="internal" x="-14.05" y="13.36" incLanes=":clusterJ1_J2_J4_J6_4_1 S_1 S_2 S_3 S_4" intLanes=":clusterJ1_J2_J4_J6_7_0 :clusterJ1_J2_J4_J6_7_1 :clusterJ1_J2_J4_J6_7_2 :clusterJ1_J2_J4_J6_10_0 :clusterJ1_J2_J4_J6_10_1 :clusterJ1_J2_J4_J6_12_0 :clusterJ1_J2_J4_J6_13_0 :clusterJ1_J2_J4_J6_13_1 :clusterJ1_J2_J4_J6_13_2 :clusterJ1_J2_J4_J6_19_0 :clusterJ1_J2_J4_J6_19_1 :clusterJ1_J2_J4_J6_19_2 :clusterJ1_J2_J4_J6_22_0 :clusterJ1_J2_J4_J6_22_1 :clusterJ1_J2_J4_J6_c0_0 :clusterJ1_J2_J4_J6_c1_0"/>
    <junction id=":clusterJ1_J2_J4_J6_26_0" type="internal" x="-0.20" y="18.85" incLanes=":clusterJ1_J2_J4_J6_6_0" intLanes=":clusterJ1_J2_J4_J6_13_0 :clusterJ1_J2_J4_J6_13_1 :clusterJ1_J2_J4_J6_13_2 :clusterJ1_J2_J4_J6_22_0 :clusterJ1_J2_J4_J6_22_1 :clusterJ1_J2_J4_J6_c0_0 :clusterJ1_J2_J4_J6_c1_0"/>
    <junction id=":clusterJ1_J2_J4_J6_27_0" type="internal" x="-10.07" y="0.72" incLanes=":clusterJ1_J2_J4_J6_10_0 W_1 W_2 W_3 W_4" intLanes=":clusterJ1_J2_J4_J6_1_0 :clusterJ1_J2_J4_J6_1_1 :clusterJ1_J2_J4_J6_1_2 :clusterJ1_J2_J4_J6_4_0 :clusterJ1_J2_J4_J6_4_1 :clusterJ1_J2_J4_J6_13_0 :clusterJ1_J2_J4_J6_13_1 :clusterJ1_J2_J4_J6_13_2 :clusterJ1_J2_J4_J6_16_0 :clusterJ1_J2_J4_J6_16_1 :clusterJ1_J2_J4_J6_18_0 :clusterJ1_J2_J4_J6_19_0 :clusterJ1_J2_J4_J6_19_1 :clusterJ1_J2_J4_J6_19_2 :clusterJ1_J2_J4_J6_c1_0 :clusterJ1_J2_J4_J6_c2_0"/>
    <junction id=":clusterJ1_J2_J4_J6_27_1" type="internal" x="1.02" y="0.57" incLanes=":clusterJ1_J2_J4_J6_10_1 W_1 W_2 W_3 W_4" intLanes=":clusterJ1_J2_J4_J6_1_0 :clusterJ1_J2_J4_J6_1_1 :clusterJ1_J2_J4_J6_1_2 :clusterJ1_J2_J4_J6_4_0 :clusterJ1_J2_J4_J6_4_1 :clusterJ1_J2_J4_J6_13_0 :clusterJ1_J2_J4_J6_13_1 :clusterJ1_J2_J4_J6_13_2 :clusterJ1_J2_J4_J6_16_0 :clusterJ1_J2_J4_J6_16_1 :clusterJ1_J2_J4_J6_18_0 :clusterJ1_J2_J4_J6_19_0 :clusterJ1_J2_J4_J6_19_1 :clusterJ1_J2_J4_J6_19_2 :clusterJ1_J2_J4_J6_c1_0 :clusterJ1_J2_J4_J6_c2_0"/>
    <junction id=":clusterJ1_J2_J4_J6_28_0" type="internal" x="3.40" y="-12.84" incLanes=":clusterJ1_J2_J4_J6_12_0" intLanes=":clusterJ1_J2_J4_J6_4_0 :clusterJ1_J2_J4_J6_4_1 :clusterJ1_J2_J4_J6_19_0 :clusterJ1_J2_J4_J6_19_1 :clusterJ1_J2_J4_J6_19_2 :clusterJ1_J2_J4_J6_c1_0 :clusterJ1_J2_J4_J6_c2_0"/>
    <junction id=":clusterJ1_J2_J4_J6_29_0" type="internal" x="-16.92" y="3.07" incLanes=":clusterJ1_J2_J4_J6_16_0 N_1 N_2 N_3 N_4" intLanes=":clusterJ1_J2_J4_J6_0_0 :clusterJ1_J2_J4_J6_1_0 :clusterJ1_J2_J4_J6_1_1 :clusterJ1_J2_J4_J6_1_2 :clusterJ1_J2_J4_J6_7_0 :clusterJ1_J2_J4_J6_7_1 :clusterJ1_J2_J4_J6_7_2 :clusterJ1_J2_J4_J6_10_0 :clusterJ1_J2_J4_J6_10_1 :clusterJ1_J2_J4_J6_19_0 :clusterJ1_J2_J4_J6_19_1 :clusterJ1_J2_J4_J6_19_2 :clusterJ1_J2_J4_J6_22_0 :clusterJ1_J2_J4_J6_22_1 :clusterJ1_J2_J4_J6_c2_0 :clusterJ1_J2_J4_J6_c3_0"/>
    <junction id=":clusterJ1_J2_J4_J6_29_1" type="internal" x="-15.39" y="-7.82" incLanes=":clusterJ1_J2_J4_J6_16_1 N_1 N_2 N_3 N_4" intLanes=":clusterJ1_J2_J4_J6_0_0 :clusterJ1_J2_J4_J6_1_0 :clusterJ1_J2_J4_J6_1_1 :clusterJ1_J2_J4_J6_1_2 :clusterJ1_J2_J4_J6_7_0 :clusterJ1_J2_J4_J6_7_1 :clusterJ1_J2_J4_J6_7_2 :clusterJ1_J2_J4_J6_10_0 :clusterJ1_J2_J4_J6_10_1 :clusterJ1_J2_J4_J6_19_0 :clusterJ1_J2_J4_J6_19_1 :clusterJ1_J2_J4_J6_19_2 :clusterJ1_J2_J4_J6_22_0 :clusterJ1_J2_J4_J6_22_1 :clusterJ1_J2_J4_J6_c2_0 :clusterJ1_J2_J4_J6_c3_0"/>
    <junction id=":clusterJ1_J2_J4_J6_30_0" type="internal" x="-29.26" y="-12.90" incLanes=":clusterJ1_J2_J4_J6_18_0" intLanes=":clusterJ1_J2_J4_J6_1_0 :clusterJ1_J2_J4_J6_1_1 :clusterJ1_J2_J4_J6_1_2 :clusterJ1_J2_J4_J6_10_0 :clusterJ1_J2_J4_J6_10_1 :clusterJ1_J2_J4_J6_c2_0 :clusterJ1_J2_J4_J6_c3_0"/>
    <junction id=":clusterJ1_J2_J4_J6_31_0" type="internal" x="-20.05" y="5.33" incLanes=":clusterJ1_J2_J4_J6_22_0 E_1 E_2 E_3 E_4" intLanes=":clusterJ1_J2_J4_J6_1_0 :clusterJ1_J2_J4_J6_1_1 :clusterJ1_J2_J4_J6_1_2 :clusterJ1_J2_J4_J6_4_0 :clusterJ1_J2_J4_J6_4_1 :clusterJ1_J2_J4_J6_6_0 :clusterJ1_J2_J4_J6_7_0 :clusterJ1_J2_J4_J6_7_1 :clusterJ1_J2_J4_J6_7_2 :clusterJ1_J2_J4_J6_13_0 :clusterJ1_J2_J4_J6_13_1 :clusterJ1_J2_J4_J6_13_2 :clusterJ1_J2_J4_J6_16_0 :clusterJ1_J2_J4_J6_16_1 :clusterJ1_J2_J4_J6_c0_0 :clusterJ1_J2_J4_J6_c3_0"/>